data_Pt
_audit_creation_method   'Generated by pymatgen'
_symmetry_space_group_name_H-M   'P1'
_symmetry_Int_Tables_number   1
_symmetry_cell_setting   triclinic
loop_
_symmetry_equiv_pos_as_xyz
  'x, y, z'
_cell_length_a   3.92
_cell_length_b   3.92
_cell_length_c   3.92
_cell_angle_alpha   90.0
_cell_angle_beta   90.0
_cell_angle_gamma   90.0
loop_
_atom_site_type_symbol
_atom_site_label
_atom_site_symmetry_multiplicity
_atom_site_fract_x
_atom_site_fract_y
_atom_site_fract_z
_atom_site_occupancy
  Pt  Pt1  1  0.00000000  0.00000000  0.00000000  1
  Pt  Pt2  1  0.00000000  0.50000000  0.50000000  1
  Pt  Pt3  1  0.50000000  0.00000000  0.50000000  1
  Pt  Pt4  1  0.50000000  0.50000000  0.00000000  1 